-----  AeroDyn Driver v1.00.x Input File  --------------------------------------
SWT-3.6-120 (BEM)
-----  Input Configuration  ----------------------------------------------------
True          Echo            -  Echo input parameters to "<rootname>.ech"?
"SWT-36-120_AeroDyn15.dat"    AD_InputFile    -  Name of the primary AeroDyn input file
-----  Turbine Data  -----------------------------------------------------------
          3   NumBlades       - Number of blades (-)
        1.5   HubRad          - Hub radius (m)
      81.60   HubHt           - Hub height (m)
        0.0   Overhang        - Overhang (m)
         -6   ShftTilt        - Shaft tilt (deg)
       -2.5   Precone         - Blade precone (deg)
-----  I/O Settings  -----------------------------------------------------------
"Test01"      OutFileRoot     - Root name for any output files (use "" for .dvr rootname) (-)
True          TabDel          - When generating formatted output (OutForm=True), make output tab-delimited (fixed-width otherwise) (flag)
"ES10.3E2"    OutFmt          - Format used for text tabular output, excluding the time channel.  Resulting field should be 10 characters. (quoted string)
True          Beep            - Beep on exit (flag)
-----  Combined-Case Analysis  -------------------------------------------------
         1   NumCases        - Number of cases to run
WndSpeed       ShearExp       RotSpd        Pitch            Yaw           dT             Tmax
(m/s)            (-)          (rpm)         (deg)           (deg)          (s)            (s)
9.0000000E+00  0.0000000E+00  11.250000E+00  0.0000000E+00  0.0000000E+00  1.00000E-02  1.0000E+01


0.0000000E+00  0.0000000E+00  0.0000000E+00  0.0000000E+00  2.5000000E+01  1.00000E-02  1.0000E+00
0.5000000E+00  0.0000000E+00  7.1619720E-01  0.0000000E+00  2.5000000E+01  1.00000E-02  1.0000E+00
1.0000000E+00  0.0000000E+00  1.4323945E+00  0.0000000E+00  2.5000000E+01  1.00000E-02  1.0000E+00
1.5000000E+00  0.0000000E+00  2.1485917E+00  0.0000000E+00  2.5000000E+01  1.00000E-02  1.0000E+00
2.0000000E+00  0.0000000E+00  2.8647890E+00  0.0000000E+00  2.5000000E+01  1.00000E-02  1.0000E+00
2.5000000E+00  0.0000000E+00  3.5809862E+00  0.0000000E+00  2.5000000E+01  1.00000E-02  1.0000E+00
3.0000000E+00  0.0000000E+00  4.2971835E+00  0.0000000E+00  2.5000000E+01  1.00000E-02  1.0000E+00
3.5000000E+00  0.0000000E+00  5.0133807E+00  0.0000000E+00  2.5000000E+01  1.00000E-02  1.0000E+00
4.0000000E+00  0.0000000E+00  5.7295780E+00  0.0000000E+00  2.5000000E+01  1.00000E-02  1.0000E+00
4.5000000E+00  0.0000000E+00  6.4457752E+00  0.0000000E+00  2.5000000E+01  1.00000E-02  1.0000E+00
5.0000000E+00  0.0000000E+00  7.1619724E+00  0.0000000E+00  2.5000000E+01  1.00000E-02  1.0000E+00
5.5000000E+00  0.0000000E+00  7.8781697E+00  0.0000000E+00  2.5000000E+01  1.00000E-02  1.0000E+00
6.0000000E+00  0.0000000E+00  8.5943669E+00  0.0000000E+00  2.5000000E+01  1.00000E-02  1.0000E+00
6.5000000E+00  0.0000000E+00  9.3105642E+00  0.0000000E+00  2.5000000E+01  1.00000E-02  1.0000E+00
7.0000000E+00  0.0000000E+00  1.00267614E+01  0.0000000E+00  2.5000000E+01  1.00000E-02  1.0000E+00
7.5000000E+00  0.0000000E+00  1.07429587E+01  0.0000000E+00  2.5000000E+01  1.00000E-02  1.0000E+00
8.0000000E+00  0.0000000E+00  1.14591559E+01  0.0000000E+00  2.5000000E+01  1.00000E-02  1.0000E+00
8.5000000E+00  0.0000000E+00  1.21753531E+01  0.0000000E+00  2.5000000E+01  1.00000E-02  1.0000E+00
9.0000000E+00  0.0000000E+00  1.28915504E+01  0.0000000E+00  2.5000000E+01  1.00000E-02  1.0000E+00
9.5000000E+00  0.0000000E+00  1.36077476E+01  0.0000000E+00  2.5000000E+01  1.00000E-02  1.0000E+00
1.0000000E+01  0.0000000E+00  1.43239449E+01  0.0000000E+00  2.5000000E+01  1.00000E-02  1.0000E+00
1.0500000E+01  0.0000000E+00  1.50401421E+01  0.0000000E+00  2.5000000E+01  1.00000E-02  1.0000E+00
1.1000000E+01  0.0000000E+00  1.57563394E+01  0.0000000E+00  2.5000000E+01  1.00000E-02  1.0000E+00
1.1500000E+01  0.0000000E+00  1.64725366E+01  0.0000000E+00  2.5000000E+01  1.00000E-02  1.0000E+00
1.2000000E+01  0.0000000E+00  1.71887339E+01  0.0000000E+00  2.5000000E+01  1.00000E-02  1.0000E+00
1.2500000E+01  0.0000000E+00  1.79049311E+01  0.0000000E+00  2.5000000E+01  1.00000E-02  1.0000E+00
1.3000000E+01  0.0000000E+00  1.86211283E+01  0.0000000E+00  2.5000000E+01  1.00000E-02  1.0000E+00

